/*--------------------------------*- C++ -*----------------------------------*\
  =========                 |
  \\      /  F ield         | OpenFOAM: The Open Source CFD Toolbox
   \\    /   O peration     | Website:  https://openfoam.org
    \\  /    A nd           | Version:  10
     \\/     M anipulation  |
\*---------------------------------------------------------------------------*/
FoamFile
{
    format      ascii;
    class       dictionary;
    location    "system";
    object      fvSchemes;
}
// * * * * * * * * * * * * * * * * * * * * * * * * * * * * * * * * * * * * * //

ddtSchemes  // Starts the section for specifying the schemes for time derivatives.
{
    default         Euler;              // Specifies the scheme for the time derivative as Euler. It is the default scheme used for time integration
}

gradSchemes                            // Starts the section for specifying the schemes for gradients
{
    default         Gauss linear;      // Specifies the scheme for the gradient as Gauss linear. It uses a linear interpolation scheme for gradient calculations
}

divSchemes                             // Starts the section for specifying the schemes for divergences
{
    div(rhoPhi,U)   Gauss linear;
    div(phi,alpha)  Gauss interfaceCompression vanLeer 1;
    div(phi,k)      Gauss limitedLinear 1;
    div(phi,B)      Gauss limitedLinear 1;
    div(B)          Gauss linear;
    div(phi,nuTilda) Gauss limitedLinear 1;
    div(((rho*nuEff)*dev2(T(grad(U))))) Gauss linear;
}

laplacianSchemes                                       // Starts the section for specifying the schemes for laplacians.
{
    default         Gauss linear corrected;
}

interpolationSchemes                                   // Starts the section for specifying the schemes for interpolations.
{
    default         linear;                             // Specifies the scheme for interpolation as linear. It uses linear interpolation for data interpolation.
}

snGradSchemes                                          // Starts the section for specifying the schemes for surface normal gradients.
{
    default         corrected;
}

// ************************************************************************* //
