/*--------------------------------*- C++ -*----------------------------------*\
| =========                 |                                                 |
| \\      /  F ield         | OpenFOAM: The Open Source CFD Toolbox           |
|  \\    /   O peration     | Version:  v2012                                 |
|   \\  /    A nd           | Website:  www.openfoam.com                      |
|    \\/     M anipulation  |                                                 |
\*---------------------------------------------------------------------------*/
FoamFile
{
    version     2.0;
    format      ascii;
    class       uniformDimensionedVectorField;
    location    "constant";
    object      g;
}
// * * * * * * * * * * * * * * * * * * * * * * * * * * * * * * * * * * * * * //

dimensions      [0 1 -2 0 0 0 0];          // Let's break down the dimensions 
                                              // The first value, 0, corresponds to the dimension of mass (M). In this case, it is zero, indicating no mass dependence.
                                              // The second value, 1, corresponds to the dimension of length (L). It is set to 1, indicating that the acceleration has units of length per time squared (L/T²).
                                              // The third value, -2, corresponds to the dimension of time (T). It is set to -2, indicating that the acceleration has units of length per time squared (L/T²).
                                              // The remaining values, 0, represent the dimensions for temperature (θ), amount of substance (N), luminous intensity (J), which are not applicable in the context of gravitational acceleration.

value           (0 0 -9.81);              // gravity at the Z axis, minus because gravity is downwards


// ************************************************************************* // 
