/*--------------------------------*- C++ -*----------------------------------*\
| =========                 |                                                 |
| \\      /  F ield         | OpenFOAM: The Open Source CFD Toolbox           |
|  \\    /   O peration     | Version:  v2012                                 |
|   \\  /    A nd           | Website:  www.openfoam.com                      |
|    \\/     M anipulation  |                                                 |
\*---------------------------------------------------------------------------*/
FoamFile
{
    version     2.0;
    format      ascii;
    class       volScalarField;
    object      p_rgh;                    // p_rgh = p - rho*gh; that means that the alternative p file = p_rgh + rho*gh; 
}
// * * * * * * * * * * * * * * * * * * * * * * * * * * * * * * * * * * * * * //

dimensions      [1 -1 -2 0 0 0 0];        // kg m s K mol A cd = M1 L-1 T -2 dimension of pressure
                                          // Mass (M). It is set to 1, indicating that the variable has units of mass (M).
                                          // length (L). It is set to -1, indicating that the variable has units of length inverse (L⁻¹).
                                          // time (T). It is set to -2, indicating that the variable has units of time inverse squared (T⁻²).

internalField   uniform 0;                // 0 = No pressure in the whole domain in the beginning

boundaryField
{
    
    inlet
    {
        type       fixedFluxPressure;      // ﬁxedFluxPressure is used for pressure in situations where zeroGradient is generally used,  
                                           // but where body forces such as gravity and surface tension are present in the solution equations. The condition adjusts the gradient accordingly.
        value      uniform 0;              // 0 = no pressure at the inlet in the beginning
    }

    outlet
    {
        type       prghTotalPressure;      // Solver applications which include buoyancy eﬀects, though a gravitational force eqn (per unit volume) source term, 
                                           // tend to solve for a pressure ﬁeld eqn, where the hydrostatic component is subtracted based on a height eqn above some reference. 
                                           // For such solvers, e.g. interFoam, an equivalent prghTotalPressure condition is applied (can also be totalPressure)
        p0         uniform 0;
        value      uniform 0;              // only for paraFoam
    }

    walls
    {
        type       zeroGradient;           // zeroGradient boundary condition that is normally imposed for pressure at wall, when no-slip velocity is imposed
    }
}

// ************************************************************************* //


// The pressure outlet boundary condition defines an outflow condition based on the flow pressure (P) at the outlet. 
// This is usually used when there is a flow rate (or velocity), or a higher pressure assigned at the inlet.
// https://www.simscale.com/docs/simulation-setup/boundary-conditions/pressure-inlet-and-pressure-outlet/
// https://en.wikipedia.org/wiki/Boundary_conditions_in_fluid_dynamics
// https://fse.studenttheses.ub.rug.nl/21242/1/mAppM_2019_ScholteSIO.pdf - Projekt mit Open channel Flow
