/*--------------------------------*- C++ -*----------------------------------*\
| =========                 |                                                 |
| \\      /  F ield         | OpenFOAM: The Open Source CFD Toolbox           |
|  \\    /   O peration     | Version:  v2012                                 |
|   \\  /    A nd           | Website:  www.openfoam.com                      |
|    \\/     M anipulation  |                                                 |
\*---------------------------------------------------------------------------*/
FoamFile
{
    version     2.0;
    format      ascii;
    class       volVectorField;
    object      U;
}
// * * * * * * * * * * * * * * * * * * * * * * * * * * * * * * * * * * * * * //

dimensions      [0 1 -1 0 0 0 0];                     // L length m / T time s = U velocity in m/s

internalField   uniform (0 0 0);                      // Entire domain initially has a U velocity value of (0 0 0) for each (X Y Z) direction.

boundaryField
{
    inlet
    {
        type       surfaceNormalFixedValue;
        refValue   uniform -0.3;                    // 0.3 m/s surfaceNormalFixedValue Specifies a vector boundary condition, normal to the patch, 
                                                    // +ve for vectors pointing out of the domain"
                                                    // thus I use the sign of "-" to mean pointing in of the domain. 
    }

    outlet
    {
        type            zeroGradient;                // This condition assumes that there is no change in the velocity across the outlet boundary.
    }

    walls
    {
        type            noSlip;                      // This condition assumes that the velocity at the boundary is zero, indicating a no-slip condition.
    }
}


// ************************************************************************* //
